REMARK  8 active torsions:
REMARK  status: ('A' for Active; 'I' for Inactive)
REMARK    1  A    between atoms: C2_2  and  O1_3 
REMARK    2  A    between atoms: C3_4  and  O1_3 
REMARK    3  A    between atoms: C3_4  and  C4_6 
REMARK       I    between atoms: C8_12  and  N1_11 
REMARK    4  A    between atoms: C8_12  and  C9_14 
REMARK    5  A    between atoms: C10_15  and  C9_14 
REMARK    6  A    between atoms: C10_15  and  C11_16 
REMARK    7  A    between atoms: C11_16  and  C12_17 
REMARK    8  A    between atoms: C12_17  and  C13_18 
ROOT
HETATM    1  C1  <0>     1      23.547 -45.084  31.878  1.00  0.00     0.034 C 
HETATM    2  C2  <0>     1      23.232 -45.097  33.376  1.00  0.00     0.174 C 
ENDROOT
BRANCH   2   3
HETATM    3  O1  <0>     1      24.218 -44.333  34.075  1.00  0.00    -0.320 OA
BRANCH   3   4
HETATM    4  C3  <0>     1      24.086 -44.244  35.408  1.00  0.00     0.282 C 
HETATM    5  O2  <0>     1      23.165 -44.795  35.962  1.00  0.00    -0.263 OA
BRANCH   4   6
HETATM    6  C4  <0>     1      25.087 -43.455  36.212  1.00  0.00     0.196 C 
HETATM    7  N1  <0>     1      24.705 -42.042  36.217  1.00  0.00    -0.337 N 
HETATM    8  C7  <0>     1      25.575 -41.033  36.822  1.00  0.00     0.137 C 
HETATM    9  C8  <0>     1      23.538 -41.666  35.658  1.00  0.00     0.220 C 
HETATM   10  C6  <0>     1      25.660 -41.271  38.334  1.00  0.00     0.094 C 
HETATM   11  S1  <0>     1      26.263 -42.961  38.623  1.00  0.00    -0.165 SA
HETATM   12  C5  <0>     1      25.114 -43.982  37.652  1.00  0.00     0.109 C 
HETATM   13  O3  <0>     1      22.764 -42.505  35.246  1.00  0.00    -0.273 OA
BRANCH   9  14
HETATM   14  C9  <0>     1      23.193 -40.204  35.544  1.00  0.00     0.103 C 
BRANCH  14  15
HETATM   15  C10 <0>     1      21.825 -40.052  34.877  1.00  0.00     0.010 C 
BRANCH  15  16
HETATM   16  C11 <0>     1      21.475 -38.567  34.761  1.00  0.00     0.011 C 
BRANCH  16  17
HETATM   17  C12 <0>     1      20.106 -38.416  34.094  1.00  0.00     0.113 C 
BRANCH  17  18
HETATM   18  C13 <0>     1      19.762 -36.953  33.980  1.00  0.00     0.172 C 
HETATM   19  O4  <0>     1      20.539 -36.110  34.394  1.00  0.00    -0.648 OA
HETATM   20  O5  <0>     1      18.706 -36.613  33.474  1.00  0.00    -0.648 OA
ENDBRANCH  17  18
ENDBRANCH  16  17
ENDBRANCH  15  16
ENDBRANCH  14  15
ENDBRANCH   9  14
ENDBRANCH   4   6
ENDBRANCH   3   4
ENDBRANCH   2   3
TORSDOF 8
