@<TRIPOS>MOLECULE
ZINC37828236
   40    40     0     0     0
SMALL
USER_CHARGES

@<TRIPOS>ATOM
      1 C1          1.7682   -0.8041    2.0767 C.3       1 <0>        -0.1504
      2 C2          0.7987   -1.0167    0.9123 C.3       1 <0>         0.0693
      3 O1          1.5093   -1.5470   -0.2084 O.3       1 <0>        -0.3524
      4 C3          0.7983   -1.7925   -1.3201 C.2       1 <0>         0.4862
      5 O2         -0.3881   -1.5648   -1.3410 O.2       1 <0>        -0.5016
      6 C4          1.4797   -2.3522   -2.5421 C.3       1 <0>         0.1539
      7 H1          2.4862   -1.9405   -2.6175 H         1 <0>         0.1168
      8 C5          0.6779   -1.9740   -3.7927 C.3       1 <0>        -0.0878
      9 S1          1.4706   -2.7317   -5.2429 S.3       1 <0>        -0.2384
     10 C6          1.5782   -4.4879   -4.7849 C.3       1 <0>        -0.1075
     11 C7          2.2842   -4.5985   -3.4287 C.3       1 <0>         0.1066
     12 N1          1.5557   -3.8099   -2.4338 N.am      1 <0>        -0.6169
     13 C8          0.9478   -4.4336   -1.4052 C.2       1 <0>         0.5128
     14 O3          0.2580   -3.8004   -0.6344 O.2       1 <0>        -0.4989
     15 C9          1.1252   -5.9177   -1.2129 C.3       1 <0>        -0.1331
     16 C10         0.3359   -6.3705    0.0170 C.3       1 <0>        -0.1062
     17 C11         0.5160   -7.8773    0.2123 C.3       1 <0>        -0.0918
     18 C12        -0.2733   -8.3302    1.4423 C.3       1 <0>        -0.1836
     19 C13        -0.0958   -9.8143    1.6346 C.2       1 <0>         0.4885
     20 O4          0.5976  -10.4508    0.8597 O.co2     1 <0>        -0.7008
     21 O5         -0.6458  -10.3785    2.5650 O.co2     1 <0>        -0.7079
     22 H2          2.2209   -1.7569    2.3512 H         1 <0>         0.0666
     23 H3          2.5482   -0.1042    1.7769 H         1 <0>         0.0624
     24 H4          1.2262   -0.3996    2.9315 H         1 <0>         0.0775
     25 H5          0.0187   -1.7166    1.2122 H         1 <0>         0.0719
     26 H6          0.3461   -0.0639    0.6378 H         1 <0>         0.0606
     27 H7         -0.3429   -2.3444   -3.6985 H         1 <0>         0.1035
     28 H8          0.6672   -0.8900   -3.9063 H         1 <0>         0.1214
     29 H9          0.5754   -4.9087   -4.7106 H         1 <0>         0.0927
     30 H10         2.1493   -5.0284   -5.5397 H         1 <0>         0.1251
     31 H11         2.3102   -5.6426   -3.1167 H         1 <0>         0.1118
     32 H12         3.3026   -4.2203   -3.5173 H         1 <0>         0.0927
     33 H13         0.7589   -6.4446   -2.0940 H         1 <0>         0.0973
     34 H14         2.1822   -6.1416   -1.0690 H         1 <0>         0.1007
     35 H15         0.7023   -5.8436    0.8981 H         1 <0>         0.0644
     36 H16        -0.7211   -6.1466   -0.1269 H         1 <0>         0.0640
     37 H17         0.1497   -8.4042   -0.6688 H         1 <0>         0.0594
     38 H18         1.5730   -8.1012    0.3562 H         1 <0>         0.0599
     39 H19         0.0931   -7.8033    2.3233 H         1 <0>         0.0558
     40 H20        -1.3303   -8.1062    1.2984 H         1 <0>         0.0557
@<TRIPOS>BOND
     1    1    2 1
     2    1   22 1
     3    1   23 1
     4    1   24 1
     5    2    3 1
     6    2   25 1
     7    2   26 1
     8    3    4 1
     9    4    5 2
    10    4    6 1
    11    6    7 1
    12    6   12 1
    13    6    8 1
    14    8    9 1
    15    8   27 1
    16    8   28 1
    17    9   10 1
    18   10   11 1
    19   10   29 1
    20   10   30 1
    21   11   12 1
    22   11   31 1
    23   11   32 1
    24   12   13 am
    25   13   14 2
    26   13   15 1
    27   15   16 1
    28   15   33 1
    29   15   34 1
    30   16   17 1
    31   16   35 1
    32   16   36 1
    33   17   18 1
    34   17   37 1
    35   17   38 1
    36   18   19 1
    37   18   39 1
    38   18   40 1
    39   19   20 2
    40   19   21 1
